lv-network-models/network_17/Feeder_5/Loads.txt
New Load.LOAD1 Phases=1 Bus1=78.2 kV=0.23 kW=1 PF=0.95 Daily=Shape_1
New Load.LOAD2 Phases=1 Bus1=87.2 kV=0.23 kW=1 PF=0.95 Daily=Shape_2
New Load.LOAD3 Phases=1 Bus1=96.1 kV=0.23 kW=1 PF=0.95 Daily=Shape_3
New Load.LOAD4 Phases=1 Bus1=112.3 kV=0.23 kW=1 PF=0.95 Daily=Shape_4
New Load.LOAD5 Phases=1 Bus1=139.1 kV=0.23 kW=1 PF=0.95 Daily=Shape_5
New Load.LOAD6 Phases=1 Bus1=159.2 kV=0.23 kW=1 PF=0.95 Daily=Shape_6
New Load.LOAD7 Phases=1 Bus1=174.2 kV=0.23 kW=1 PF=0.95 Daily=Shape_7
New Load.LOAD8 Phases=1 Bus1=196.3 kV=0.23 kW=1 PF=0.95 Daily=Shape_8
New Load.LOAD9 Phases=1 Bus1=208.1 kV=0.23 kW=1 PF=0.95 Daily=Shape_9
New Load.LOAD10 Phases=1 Bus1=230.2 kV=0.23 kW=1 PF=0.95 Daily=Shape_10
New Load.LOAD11 Phases=1 Bus1=237.3 kV=0.23 kW=1 PF=0.95 Daily=Shape_11
New Load.LOAD12 Phases=1 Bus1=288.1 kV=0.23 kW=1 PF=0.95 Daily=Shape_12
New Load.LOAD13 Phases=1 Bus1=316.1 kV=0.23 kW=1 PF=0.95 Daily=Shape_13
New Load.LOAD14 Phases=1 Bus1=361.2 kV=0.23 kW=1 PF=0.95 Daily=Shape_14
New Load.LOAD15 Phases=1 Bus1=382.3 kV=0.23 kW=1 PF=0.95 Daily=Shape_15
New Load.LOAD16 Phases=1 Bus1=384.1 kV=0.23 kW=1 PF=0.95 Daily=Shape_16
New Load.LOAD17 Phases=1 Bus1=391.3 kV=0.23 kW=1 PF=0.95 Daily=Shape_17
New Load.LOAD18 Phases=1 Bus1=396.3 kV=0.23 kW=1 PF=0.95 Daily=Shape_18
New Load.LOAD19 Phases=1 Bus1=401.3 kV=0.23 kW=1 PF=0.95 Daily=Shape_19
New Load.LOAD20 Phases=1 Bus1=430.3 kV=0.23 kW=1 PF=0.95 Daily=Shape_20
New Load.LOAD21 Phases=1 Bus1=431.2 kV=0.23 kW=1 PF=0.95 Daily=Shape_21
New Load.LOAD22 Phases=1 Bus1=465.1 kV=0.23 kW=1 PF=0.95 Daily=Shape_22
New Load.LOAD23 Phases=1 Bus1=475.3 kV=0.23 kW=1 PF=0.95 Daily=Shape_23
New Load.LOAD24 Phases=1 Bus1=494.2 kV=0.23 kW=1 PF=0.95 Daily=Shape_24
New Load.LOAD25 Phases=1 Bus1=500.2 kV=0.23 kW=1 PF=0.95 Daily=Shape_25
New Load.LOAD26 Phases=1 Bus1=527.1 kV=0.23 kW=1 PF=0.95 Daily=Shape_26
New Load.LOAD27 Phases=1 Bus1=542.2 kV=0.23 kW=1 PF=0.95 Daily=Shape_27
New Load.LOAD28 Phases=1 Bus1=562.1 kV=0.23 kW=1 PF=0.95 Daily=Shape_28
New Load.LOAD29 Phases=1 Bus1=571.2 kV=0.23 kW=1 PF=0.95 Daily=Shape_29
New Load.LOAD30 Phases=1 Bus1=655.1 kV=0.23 kW=1 PF=0.95 Daily=Shape_30
New Load.LOAD31 Phases=1 Bus1=657.3 kV=0.23 kW=1 PF=0.95 Daily=Shape_31
New Load.LOAD32 Phases=1 Bus1=672.2 kV=0.23 kW=1 PF=0.95 Daily=Shape_32
New Load.LOAD33 Phases=1 Bus1=696.2 kV=0.23 kW=1 PF=0.95 Daily=Shape_33
New Load.LOAD34 Phases=1 Bus1=733.1 kV=0.23 kW=1 PF=0.95 Daily=Shape_34
New Load.LOAD35 Phases=1 Bus1=742.3 kV=0.23 kW=1 PF=0.95 Daily=Shape_35
New Load.LOAD36 Phases=1 Bus1=766.3 kV=0.23 kW=1 PF=0.95 Daily=Shape_36
New Load.LOAD37 Phases=1 Bus1=802.3 kV=0.23 kW=1 PF=0.95 Daily=Shape_37
New Load.LOAD38 Phases=1 Bus1=808.1 kV=0.23 kW=1 PF=0.95 Daily=Shape_38
New Load.LOAD39 Phases=1 Bus1=809.3 kV=0.23 kW=1 PF=0.95 Daily=Shape_39
New Load.LOAD40 Phases=1 Bus1=825.3 kV=0.23 kW=1 PF=0.95 Daily=Shape_40
New Load.LOAD41 Phases=1 Bus1=836.1 kV=0.23 kW=1 PF=0.95 Daily=Shape_41
New Load.LOAD42 Phases=1 Bus1=840.1 kV=0.23 kW=1 PF=0.95 Daily=Shape_42
New Load.LOAD43 Phases=1 Bus1=860.1 kV=0.23 kW=1 PF=0.95 Daily=Shape_43
New Load.LOAD44 Phases=1 Bus1=865.3 kV=0.23 kW=1 PF=0.95 Daily=Shape_44
New Load.LOAD45 Phases=1 Bus1=888.2 kV=0.23 kW=1 PF=0.95 Daily=Shape_45
New Load.LOAD46 Phases=1 Bus1=925.3 kV=0.23 kW=1 PF=0.95 Daily=Shape_46
New Load.LOAD47 Phases=1 Bus1=950.1 kV=0.23 kW=1 PF=0.95 Daily=Shape_47
New Load.LOAD48 Phases=1 Bus1=962.2 kV=0.23 kW=1 PF=0.95 Daily=Shape_48
New Load.LOAD49 Phases=1 Bus1=979.2 kV=0.23 kW=1 PF=0.95 Daily=Shape_49
New Load.LOAD50 Phases=1 Bus1=1004.1 kV=0.23 kW=1 PF=0.95 Daily=Shape_50
New Load.LOAD51 Phases=1 Bus1=1030.3 kV=0.23 kW=1 PF=0.95 Daily=Shape_51
New Load.LOAD52 Phases=1 Bus1=1056.3 kV=0.23 kW=1 PF=0.95 Daily=Shape_52
New Load.LOAD53 Phases=1 Bus1=1071.2 kV=0.23 kW=1 PF=0.95 Daily=Shape_53
New Load.LOAD54 Phases=1 Bus1=1087.3 kV=0.23 kW=1 PF=0.95 Daily=Shape_54
New Load.LOAD55 Phases=1 Bus1=1111.2 kV=0.23 kW=1 PF=0.95 Daily=Shape_55
New Load.LOAD56 Phases=1 Bus1=1144.1 kV=0.23 kW=1 PF=0.95 Daily=Shape_56
New Load.LOAD57 Phases=1 Bus1=1146.3 kV=0.23 kW=1 PF=0.95 Daily=Shape_57
New Load.LOAD58 Phases=1 Bus1=1168.2 kV=0.23 kW=1 PF=0.95 Daily=Shape_58
New Load.LOAD59 Phases=1 Bus1=1171.1 kV=0.23 kW=1 PF=0.95 Daily=Shape_59
New Load.LOAD60 Phases=1 Bus1=1177.1 kV=0.23 kW=1 PF=0.95 Daily=Shape_60
New Load.LOAD61 Phases=1 Bus1=1183.1 kV=0.23 kW=1 PF=0.95 Daily=Shape_61
New Load.LOAD62 Phases=1 Bus1=1190.2 kV=0.23 kW=1 PF=0.95 Daily=Shape_62
New Load.LOAD63 Phases=1 Bus1=1194.2 kV=0.23 kW=1 PF=0.95 Daily=Shape_63
New Load.LOAD64 Phases=1 Bus1=1218.1 kV=0.23 kW=1 PF=0.95 Daily=Shape_64
New Load.LOAD65 Phases=1 Bus1=1228.2 kV=0.23 kW=1 PF=0.95 Daily=Shape_65
New Load.LOAD66 Phases=1 Bus1=1254.1 kV=0.23 kW=1 PF=0.95 Daily=Shape_66
New Load.LOAD67 Phases=1 Bus1=1256.2 kV=0.23 kW=1 PF=0.95 Daily=Shape_67
New Load.LOAD68 Phases=1 Bus1=1276.1 kV=0.23 kW=1 PF=0.95 Daily=Shape_68
New Load.LOAD69 Phases=1 Bus1=1278.2 kV=0.23 kW=1 PF=0.95 Daily=Shape_69
New Load.LOAD70 Phases=1 Bus1=1284.3 kV=0.23 kW=1 PF=0.95 Daily=Shape_70
New Load.LOAD71 Phases=1 Bus1=1301.2 kV=0.23 kW=1 PF=0.95 Daily=Shape_71
New Load.LOAD72 Phases=1 Bus1=1309.3 kV=0.23 kW=1 PF=0.95 Daily=Shape_72
New Load.LOAD73 Phases=1 Bus1=1367.2 kV=0.23 kW=1 PF=0.95 Daily=Shape_73
New Load.LOAD74 Phases=1 Bus1=1397.1 kV=0.23 kW=1 PF=0.95 Daily=Shape_74
New Load.LOAD75 Phases=1 Bus1=1405.3 kV=0.23 kW=1 PF=0.95 Daily=Shape_75
New Load.LOAD76 Phases=1 Bus1=1425.3 kV=0.23 kW=1 PF=0.95 Daily=Shape_76
New Load.LOAD77 Phases=1 Bus1=1450.2 kV=0.23 kW=1 PF=0.95 Daily=Shape_77
New Load.LOAD78 Phases=1 Bus1=1459.1 kV=0.23 kW=1 PF=0.95 Daily=Shape_78
New Load.LOAD79 Phases=1 Bus1=1471.3 kV=0.23 kW=1 PF=0.95 Daily=Shape_79
New Load.LOAD80 Phases=1 Bus1=1483.3 kV=0.23 kW=1 PF=0.95 Daily=Shape_80
New Load.LOAD81 Phases=1 Bus1=1505.1 kV=0.23 kW=1 PF=0.95 Daily=Shape_81
New Load.LOAD82 Phases=1 Bus1=1517.3 kV=0.23 kW=1 PF=0.95 Daily=Shape_82
New Load.LOAD83 Phases=1 Bus1=1520.1 kV=0.23 kW=1 PF=0.95 Daily=Shape_83
New Load.LOAD84 Phases=1 Bus1=1532.2 kV=0.23 kW=1 PF=0.95 Daily=Shape_84
New Load.LOAD85 Phases=1 Bus1=1575.1 kV=0.23 kW=1 PF=0.95 Daily=Shape_85
New Load.LOAD86 Phases=1 Bus1=1620.3 kV=0.23 kW=1 PF=0.95 Daily=Shape_86
New Load.LOAD87 Phases=1 Bus1=1621.3 kV=0.23 kW=1 PF=0.95 Daily=Shape_87
New Load.LOAD88 Phases=1 Bus1=1628.2 kV=0.23 kW=1 PF=0.95 Daily=Shape_88
New Load.LOAD89 Phases=1 Bus1=1634.3 kV=0.23 kW=1 PF=0.95 Daily=Shape_89
New Load.LOAD90 Phases=1 Bus1=1637.2 kV=0.23 kW=1 PF=0.95 Daily=Shape_90
New Load.LOAD91 Phases=1 Bus1=1669.3 kV=0.23 kW=1 PF=0.95 Daily=Shape_91
New Load.LOAD92 Phases=1 Bus1=1676.1 kV=0.23 kW=1 PF=0.95 Daily=Shape_92
New Load.LOAD93 Phases=1 Bus1=1677.2 kV=0.23 kW=1 PF=0.95 Daily=Shape_93
New Load.LOAD94 Phases=1 Bus1=1685.2 kV=0.23 kW=1 PF=0.95 Daily=Shape_94
New Load.LOAD95 Phases=1 Bus1=1699.3 kV=0.23 kW=1 PF=0.95 Daily=Shape_95
New Load.LOAD96 Phases=1 Bus1=1720.1 kV=0.23 kW=1 PF=0.95 Daily=Shape_96
New Load.LOAD97 Phases=1 Bus1=1742.2 kV=0.23 kW=1 PF=0.95 Daily=Shape_97
New Load.LOAD98 Phases=1 Bus1=1743.3 kV=0.23 kW=1 PF=0.95 Daily=Shape_98
New Load.LOAD99 Phases=1 Bus1=1765.3 kV=0.23 kW=1 PF=0.95 Daily=Shape_99
New Load.LOAD100 Phases=1 Bus1=1773.2 kV=0.23 kW=1 PF=0.95 Daily=Shape_100
New Load.LOAD101 Phases=1 Bus1=1811.1 kV=0.23 kW=1 PF=0.95 Daily=Shape_101
New Load.LOAD102 Phases=1 Bus1=1831.2 kV=0.23 kW=1 PF=0.95 Daily=Shape_102
New Load.LOAD103 Phases=1 Bus1=1846.3 kV=0.23 kW=1 PF=0.95 Daily=Shape_103
New Load.LOAD104 Phases=1 Bus1=1854.1 kV=0.23 kW=1 PF=0.95 Daily=Shape_104
New Load.LOAD105 Phases=1 Bus1=1857.2 kV=0.23 kW=1 PF=0.95 Daily=Shape_105
New Load.LOAD106 Phases=1 Bus1=1875.1 kV=0.23 kW=1 PF=0.95 Daily=Shape_106
New Load.LOAD107 Phases=1 Bus1=1879.3 kV=0.23 kW=1 PF=0.95 Daily=Shape_107
New Load.LOAD108 Phases=1 Bus1=1890.1 kV=0.23 kW=1 PF=0.95 Daily=Shape_108
New Load.LOAD109 Phases=1 Bus1=1898.1 kV=0.23 kW=1 PF=0.95 Daily=Shape_109
New Load.LOAD110 Phases=1 Bus1=1914.1 kV=0.23 kW=1 PF=0.95 Daily=Shape_110
New Load.LOAD111 Phases=1 Bus1=1928.2 kV=0.23 kW=1 PF=0.95 Daily=Shape_111
New Load.LOAD112 Phases=1 Bus1=1936.1 kV=0.23 kW=1 PF=0.95 Daily=Shape_112
New Load.LOAD113 Phases=1 Bus1=1958.1 kV=0.23 kW=1 PF=0.95 Daily=Shape_113
New Load.LOAD114 Phases=1 Bus1=1963.2 kV=0.23 kW=1 PF=0.95 Daily=Shape_114
New Load.LOAD115 Phases=1 Bus1=2034.3 kV=0.23 kW=1 PF=0.95 Daily=Shape_115
New Load.LOAD116 Phases=1 Bus1=2124.2 kV=0.23 kW=1 PF=0.95 Daily=Shape_116
New Load.LOAD117 Phases=1 Bus1=2169.1 kV=0.23 kW=1 PF=0.95 Daily=Shape_117
New Load.LOAD118 Phases=1 Bus1=2180.3 kV=0.23 kW=1 PF=0.95 Daily=Shape_118
New Load.LOAD119 Phases=1 Bus1=2232.1 kV=0.23 kW=1 PF=0.95 Daily=Shape_119
New Load.LOAD120 Phases=1 Bus1=2258.1 kV=0.23 kW=1 PF=0.95 Daily=Shape_120
New Load.LOAD121 Phases=1 Bus1=2260.2 kV=0.23 kW=1 PF=0.95 Daily=Shape_121
New Load.LOAD122 Phases=1 Bus1=2289.2 kV=0.23 kW=1 PF=0.95 Daily=Shape_122
New Load.LOAD123 Phases=1 Bus1=2292.3 kV=0.23 kW=1 PF=0.95 Daily=Shape_123
New Load.LOAD124 Phases=1 Bus1=2294.1 kV=0.23 kW=1 PF=0.95 Daily=Shape_124
New Load.LOAD125 Phases=1 Bus1=2295.2 kV=0.23 kW=1 PF=0.95 Daily=Shape_125
New Load.LOAD126 Phases=1 Bus1=2337.3 kV=0.23 kW=1 PF=0.95 Daily=Shape_126
New Load.LOAD127 Phases=1 Bus1=2344.1 kV=0.23 kW=1 PF=0.95 Daily=Shape_127
New Load.LOAD128 Phases=1 Bus1=2349.2 kV=0.23 kW=1 PF=0.95 Daily=Shape_128
New Load.LOAD129 Phases=1 Bus1=2389.3 kV=0.23 kW=1 PF=0.95 Daily=Shape_129
New Load.LOAD130 Phases=1 Bus1=2391.2 kV=0.23 kW=1 PF=0.95 Daily=Shape_130
New Load.LOAD131 Phases=1 Bus1=2394.1 kV=0.23 kW=1 PF=0.95 Daily=Shape_131
New Load.LOAD132 Phases=1 Bus1=2397.2 kV=0.23 kW=1 PF=0.95 Daily=Shape_132
New Load.LOAD133 Phases=1 Bus1=2401.3 kV=0.23 kW=1 PF=0.95 Daily=Shape_133
New Load.LOAD134 Phases=1 Bus1=2436.1 kV=0.23 kW=1 PF=0.95 Daily=Shape_134
New Load.LOAD135 Phases=1 Bus1=2492.1 kV=0.23 kW=1 PF=0.95 Daily=Shape_135
New Load.LOAD136 Phases=1 Bus1=2514.2 kV=0.23 kW=1 PF=0.95 Daily=Shape_136
New Load.LOAD137 Phases=1 Bus1=2541.3 kV=0.23 kW=1 PF=0.95 Daily=Shape_137
New Load.LOAD138 Phases=1 Bus1=2543.1 kV=0.23 kW=1 PF=0.95 Daily=Shape_138
New Load.LOAD139 Phases=1 Bus1=2548.1 kV=0.23 kW=1 PF=0.95 Daily=Shape_139
New Load.LOAD140 Phases=1 Bus1=2551.2 kV=0.23 kW=1 PF=0.95 Daily=Shape_140
New Load.LOAD141 Phases=1 Bus1=2553.3 kV=0.23 kW=1 PF=0.95 Daily=Shape_141
New Load.LOAD142 Phases=1 Bus1=2554.1 kV=0.23 kW=1 PF=0.95 Daily=Shape_142
New Load.LOAD143 Phases=1 Bus1=2570.3 kV=0.23 kW=1 PF=0.95 Daily=Shape_143
New Load.LOAD144 Phases=1 Bus1=2586.2 kV=0.23 kW=1 PF=0.95 Daily=Shape_144
New Load.LOAD145 Phases=1 Bus1=2587.3 kV=0.23 kW=1 PF=0.95 Daily=Shape_145
New Load.LOAD146 Phases=1 Bus1=2600.1 kV=0.23 kW=1 PF=0.95 Daily=Shape_146
New Load.LOAD147 Phases=1 Bus1=2605.2 kV=0.23 kW=1 PF=0.95 Daily=Shape_147
New Load.LOAD148 Phases=1 Bus1=2676.1 kV=0.23 kW=1 PF=0.95 Daily=Shape_148
New Load.LOAD149 Phases=1 Bus1=2691.1 kV=0.23 kW=1 PF=0.95 Daily=Shape_149
New Load.LOAD150 Phases=1 Bus1=2692.3 kV=0.23 kW=1 PF=0.95 Daily=Shape_150
New Load.LOAD151 Phases=1 Bus1=2696.3 kV=0.23 kW=1 PF=0.95 Daily=Shape_151
New Load.LOAD152 Phases=1 Bus1=2715.1 kV=0.23 kW=1 PF=0.95 Daily=Shape_152
New Load.LOAD153 Phases=1 Bus1=2716.3 kV=0.23 kW=1 PF=0.95 Daily=Shape_153
New Load.LOAD154 Phases=1 Bus1=2726.2 kV=0.23 kW=1 PF=0.95 Daily=Shape_154
New Load.LOAD155 Phases=1 Bus1=2735.3 kV=0.23 kW=1 PF=0.95 Daily=Shape_155
New Load.LOAD156 Phases=1 Bus1=2743.2 kV=0.23 kW=1 PF=0.95 Daily=Shape_156
New Load.LOAD157 Phases=1 Bus1=2744.3 kV=0.23 kW=1 PF=0.95 Daily=Shape_157
New Load.LOAD158 Phases=1 Bus1=2749.2 kV=0.23 kW=1 PF=0.95 Daily=Shape_158
New Load.LOAD159 Phases=1 Bus1=2751.2 kV=0.23 kW=1 PF=0.95 Daily=Shape_159
